resultados/06_takagi/alimentador_geometria_cemig/cargas_extraido.dss
New "Load.BT_295227377_M1" bus1="NODE#420683413.1.2" phases=1 conn=Delta model=2 kv=0.240000000 kw = 0.0 pf=0.92 status=variable vmaxpu=1.5 vminpu=0.92 daily="COM2_17_DU"
New "Load.BT_295227377_M2" bus1="NODE#420683413.1.2" phases=1 conn=Delta model=3 kv=0.240000000 kw = 0.0 pf=0.92 status=variable vmaxpu=1.5 vminpu=0.92 daily="COM2_17_DU"
New "Load.BT_324074522_1_M1" bus1="NODE#420683251.1.2.3" phases=3 conn=Delta model=2 kv=0.220000000 kw = 0.066826 pf=0.92 status=variable vmaxpu=1.5 vminpu=0.92 daily="RES1_7_DU"
New "Load.BT_324074522_1_M2" bus1="NODE#420683251.1.2.3" phases=3 conn=Delta model=3 kv=0.220000000 kw = 0.066826 pf=0.92 status=variable vmaxpu=1.5 vminpu=0.92 daily="RES1_7_DU"
New "Load.BT_295227924_M1" bus1="NODE#420661565.3" phases=1 conn=Wye model=2 kv=0.220000000 kw = 0.0 pf=0.92 status=variable vmaxpu=1.5 vminpu=0.92 daily="RES3_11_DU"
New "Load.BT_295227924_M2" bus1="NODE#420661565.3" phases=1 conn=Wye model=3 kv=0.220000000 kw = 0.0 pf=0.92 status=variable vmaxpu=1.5 vminpu=0.92 daily="RES3_11_DU"
New "Load.BT_295142007_1_M1" bus1="NODE#420685087.2" phases=1 conn=Wye model=2 kv=0.220000000 kw = 0.066826 pf=0.92 status=variable vmaxpu=1.5 vminpu=0.92 daily="RES1_7_DU"
New "Load.BT_295142007_1_M2" bus1="NODE#420685087.2" phases=1 conn=Wye model=3 kv=0.220000000 kw = 0.066826 pf=0.92 status=variable vmaxpu=1.5 vminpu=0.92 daily="RES1_7_DU"
New "Load.BT_324075093_1_M1" bus1="NODE#420712884.1.2.3" phases=3 conn=Delta model=2 kv=0.220000000 kw = 0.0 pf=0.92 status=variable vmaxpu=1.5 vminpu=0.92 daily="RES4_20_DU"
New "Load.BT_324075093_1_M2" bus1="NODE#420712884.1.2.3" phases=3 conn=Delta model=3 kv=0.220000000 kw = 0.0 pf=0.92 status=variable vmaxpu=1.5 vminpu=0.92 daily="RES4_20_DU"
New "Load.BT_295228633_M1" bus1="NODE#420661634.2.3" phases=1 conn=Delta model=2 kv=0.220000000 kw = 0.339941 pf=0.92 status=variable vmaxpu=1.5 vminpu=0.92 daily="RES3_15_DU"
New "Load.BT_295228633_M2" bus1="NODE#420661634.2.3" phases=1 conn=Delta model=3 kv=0.220000000 kw = 0.339941 pf=0.92 status=variable vmaxpu=1.5 vminpu=0.92 daily="RES3_15_DU"
New "Load.BT_324073151_1_M1" bus1="NODE#482799214.1.2.3" phases=3 conn=Delta model=2 kv=0.220000000 kw = 0.0 pf=0.92 status=variable vmaxpu=1.5 vminpu=0.92 daily="RES6_12_DU"
New "Load.BT_324073151_1_M2" bus1="NODE#482799214.1.2.3" phases=3 conn=Delta model=3 kv=0.220000000 kw = 0.0 pf=0.92 status=variable vmaxpu=1.5 vminpu=0.92 daily="RES6_12_DU"
New "Load.BT_295143506_1_M1" bus1="NODE#420711294.1.2" phases=1 conn=Delta model=2 kv=0.220000000 kw = 0.080895 pf=0.92 status=variable vmaxpu=1.5 vminpu=0.92 daily="RES1_14_DU"
New "Load.BT_295143506_1_M2" bus1="NODE#420711294.1.2" phases=1 conn=Delta model=3 kv=0.220000000 kw = 0.080895 pf=0.92 status=variable vmaxpu=1.5 vminpu=0.92 daily="RES1_14_DU"
New "Load.BT_295228171_M1" bus1="NODE#420685030.3" phases=1 conn=Wye model=2 kv=0.220000000 kw = 0.0 pf=0.92 status=variable vmaxpu=1.5 vminpu=0.92 daily="RES1_2_DU"
New "Load.BT_295228171_M2" bus1="NODE#420685030.3" phases=1 conn=Wye model=3 kv=0.220000000 kw = 0.0 pf=0.92 status=variable vmaxpu=1.5 vminpu=0.92 daily="RES1_2_DU"
New "Load.BT_324072989_1_M1" bus1="NODE#420685087.1.2.3" phases=3 conn=Delta model=2 kv=0.220000000 kw = 0.0 pf=0.92 status=variable vmaxpu=1.5 vminpu=0.92 daily="RES1_2_DU"
New "Load.BT_324072989_1_M2" bus1="NODE#420685087.1.2.3" phases=3 conn=Delta model=3 kv=0.220000000 kw = 0.0 pf=0.92 status=variable vmaxpu=1.5 vminpu=0.92 daily="RES1_2_DU"
New "Load.BT_295142007_2_M1" bus1="NODE#420685087.2" phases=1 conn=Wye model=2 kv=0.220000000 kw = 0.038462 pf=0.92 status=variable vmaxpu=1.5 vminpu=0.92 daily="RES1_25_DU"
New "Load.BT_295142007_2_M2" bus1="NODE#420685087.2" phases=1 conn=Wye model=3 kv=0.220000000 kw = 0.038462 pf=0.92 status=variable vmaxpu=1.5 vminpu=0.92 daily="RES1_25_DU"
New "Load.BT_300143606_M1" bus1="NODE#420710724.1" phases=1 conn=Wye model=2 kv=0.220000000 kw = 0.080895 pf=0.92 status=variable vmaxpu=1.5 vminpu=0.92 daily="RES1_14_DU"
New "Load.BT_300143606_M2" bus1="NODE#420710724.1" phases=1 conn=Wye model=3 kv=0.220000000 kw = 0.080895 pf=0.92 status=variable vmaxpu=1.5 vminpu=0.92 daily="RES1_14_DU"
New "Load.BT_ _1_M1" bus1="NODE#420683233.3" phases=1 conn=Wye model=2 kv=0.220000000 kw = 0.0 pf=0.92 status=variable vmaxpu=1.5 vminpu=0.92 daily="RES2_23_DU"
New "Load.BT_ _1_M2" bus1="NODE#420683233.3" phases=1 conn=Wye model=3 kv=0.220000000 kw = 0.0 pf=0.92 status=variable vmaxpu=1.5 vminpu=0.92 daily="RES2_23_DU"
New "Load.BT_324074700_1_M1" bus1="NODE#420710784.1.2.3" phases=3 conn=Delta model=2 kv=0.220000000 kw = 0.038462 pf=0.92 status=variable vmaxpu=1.5 vminpu=0.92 daily="RES1_25_DU"
New "Load.BT_324074700_1_M2" bus1="NODE#420710784.1.2.3" phases=3 conn=Delta model=3 kv=0.220000000 kw = 0.038462 pf=0.92 status=variable vmaxpu=1.5 vminpu=0.92 daily="RES1_25_DU"
New "Load.BT_299765578_M1" bus1="NODE#420683221.3" phases=1 conn=Wye model=2 kv=0.220000000 kw = 0.37089 pf=0.92 status=variable vmaxpu=1.5 vminpu=0.92 daily="RES2_10_DU"
New "Load.BT_299765578_M2" bus1="NODE#420683221.3" phases=1 conn=Wye model=3 kv=0.220000000 kw = 0.37089 pf=0.92 status=variable vmaxpu=1.5 vminpu=0.92 daily="RES2_10_DU"
New "Load.BT_ _2_M1" bus1="NODE#420686482.1" phases=1 conn=Wye model=2 kv=0.220000000 kw = 0.161081 pf=0.92 status=variable vmaxpu=1.5 vminpu=0.92 daily="RES2_22_DU"
New "Load.BT_ _2_M2" bus1="NODE#420686482.1" phases=1 conn=Wye model=3 kv=0.220000000 kw = 0.161081 pf=0.92 status=variable vmaxpu=1.5 vminpu=0.92 daily="RES2_22_DU"
New "Load.BT_300144469_1_M1" bus1="NODE#420683314.2" phases=1 conn=Wye model=2 kv=0.220000000 kw = 0.0 pf=0.92 status=variable vmaxpu=1.5 vminpu=0.92 daily="RES1_10_DU"
New "Load.BT_300144469_1_M2" bus1="NODE#420683314.2" phases=1 conn=Wye model=3 kv=0.220000000 kw = 0.0 pf=0.92 status=variable vmaxpu=1.5 vminpu=0.92 daily="RES1_10_DU"
New "Load.BT_295227798_M1" bus1="NODE#420683215.2" phases=1 conn=Wye model=2 kv=0.220000000 kw = 0.0 pf=0.92 status=variable vmaxpu=1.5 vminpu=0.92 daily="RES1_1_DU"
New "Load.BT_295227798_M2" bus1="NODE#420683215.2" phases=1 conn=Wye model=3 kv=0.220000000 kw = 0.0 pf=0.92 status=variable vmaxpu=1.5 vminpu=0.92 daily="RES1_1_DU"
New "Load.BT_295227806_1_M1" bus1="NODE#420683215.1.2.3" phases=3 conn=Delta model=2 kv=0.220000000 kw = 0.0629875 pf=0.92 status=variable vmaxpu=1.5 vminpu=0.92 daily="RES1_20_DU"
New "Load.BT_295227806_1_M2" bus1="NODE#420683215.1.2.3" phases=3 conn=Delta model=3 kv=0.220000000 kw = 0.0629875 pf=0.92 status=variable vmaxpu=1.5 vminpu=0.92 daily="RES1_20_DU"
New "Load.BT_295225717_1_M1" bus1="NODE#420711543.1.2.3" phases=3 conn=Delta model=2 kv=0.220000000 kw = 0.0683325 pf=0.92 status=variable vmaxpu=1.5 vminpu=0.92 daily="COM1_23_DU"
New "Load.BT_295225717_1_M2" bus1="NODE#420711543.1.2.3" phases=3 conn=Delta model=3 kv=0.220000000 kw = 0.0683325 pf=0.92 status=variable vmaxpu=1.5 vminpu=0.92 daily="COM1_23_DU"
New "Load.BT_1207425600_M1" bus1="NODE#1946105962.3.4" phases=1 conn=Wye model=2 kv=0.220000000 kw = 0.0629875 pf=0.92 status=variable vmaxpu=1.5 vminpu=0.92 daily="RES1_20_DU"
New "Load.BT_1207425600_M2" bus1="NODE#1946105962.3.4" phases=1 conn=Wye model=3 kv=0.220000000 kw = 0.0629875 pf=0.92 status=variable vmaxpu=1.5 vminpu=0.92 daily="RES1_20_DU"
New "Load.BT_295227900_M1" bus1="NODE#420685225.2" phases=1 conn=Wye model=2 kv=0.120000000 kw = 0.0 pf=0.92 status=variable vmaxpu=1.5 vminpu=0.92 daily="RES2_18_DU"
New "Load.BT_295227900_M2" bus1="NODE#420685225.2" phases=1 conn=Wye model=3 kv=0.120000000 kw = 0.0 pf=0.92 status=variable vmaxpu=1.5 vminpu=0.92 daily="RES2_18_DU"
New "Load.BT_2081619806_1_M1" bus1="NODE#420261732.1.2.3.4" phases=3 conn=Delta model=2 kv=0.220000000 kw = 0.066826 pf=0.92 status=variable vmaxpu=1.5 vminpu=0.92 daily="RES1_7_DU"
New "Load.BT_2081619806_1_M2" bus1="NODE#420261732.1.2.3.4" phases=3 conn=Delta model=3 kv=0.220000000 kw = 0.066826 pf=0.92 status=variable vmaxpu=1.5 vminpu=0.92 daily="RES1_7_DU"
New "Load.BT_295227814_1_M1" bus1="NODE#420683215.1.2.3" phases=3 conn=Delta model=2 kv=0.220000000 kw = 0.0606455 pf=0.92 status=variable vmaxpu=1.5 vminpu=0.92 daily="RES1_22_DU"
New "Load.BT_295227814_1_M2" bus1="NODE#420683215.1.2.3" phases=3 conn=Delta model=3 kv=0.220000000 kw = 0.0606455 pf=0.92 status=variable vmaxpu=1.5 vminpu=0.92 daily="RES1_22_DU"
New "Load.BT_ _3_M1" bus1="NODE#420661634.1.2" phases=1 conn=Delta model=2 kv=0.220000000 kw = 0.0 pf=0.92 status=variable vmaxpu=1.5 vminpu=0.92 daily="COM3_9_DU"
New "Load.BT_ _3_M2" bus1="NODE#420661634.1.2" phases=1 conn=Delta model=3 kv=0.220000000 kw = 0.0 pf=0.92 status=variable vmaxpu=1.5 vminpu=0.92 daily="COM3_9_DU"
New "Load.BT_295226233_M1" bus1="NODE#420712884.1.2.3" phases=3 conn=Delta model=2 kv=0.220000000 kw = 0.0 pf=0.92 status=variable vmaxpu=1.5 vminpu=0.92 daily="RES2_2_DU"
New "Load.BT_295226233_M2" bus1="NODE#420712884.1.2.3" phases=3 conn=Delta model=3 kv=0.220000000 kw = 0.0 pf=0.92 status=variable vmaxpu=1.5 vminpu=0.92 daily="RES2_2_DU"
New "Load.BT_299766255_1_M1" bus1="NODE#420683413.1.2" phases=1 conn=Delta model=2 kv=0.240000000 kw = 0.0 pf=0.92 status=variable vmaxpu=1.5 vminpu=0.92 daily="RES2_26_DU"
New "Load.BT_299766255_1_M2" bus1="NODE#420683413.1.2" phases=1 conn=Delta model=3 kv=0.240000000 kw = 0.0 pf=0.92 status=variable vmaxpu=1.5 vminpu=0.92 daily="RES2_26_DU"
New "Load.BT_295228054_1_M1" bus1="NODE#420685123.1.2" phases=1 conn=Delta model=2 kv=0.220000000 kw = 0.0 pf=0.92 status=variable vmaxpu=1.5 vminpu=0.92 daily="RES2_10_DU"
New "Load.BT_295228054_1_M2" bus1="NODE#420685123.1.2" phases=1 conn=Delta model=3 kv=0.220000000 kw = 0.0 pf=0.92 status=variable vmaxpu=1.5 vminpu=0.92 daily="RES2_10_DU"
New "Load.BT_299768350_M1" bus1="NODE#420684919.1" phases=1 conn=Wye model=2 kv=0.220000000 kw = 0.0 pf=0.92 status=variable vmaxpu=1.5 vminpu=0.92 daily="RES2_4_DU"
New "Load.BT_299768350_M2" bus1="NODE#420684919.1" phases=1 conn=Wye model=3 kv=0.220000000 kw = 0.0 pf=0.92 status=variable vmaxpu=1.5 vminpu=0.92 daily="RES2_4_DU"
New "Load.BT_295226533_1_M1" bus1="NODE#420661331.3.1" phases=1 conn=Delta model=2 kv=0.220000000 kw = 0.0 pf=0.92 status=variable vmaxpu=1.5 vminpu=0.92 daily="RES2_15_DU"
New "Load.BT_295226533_1_M2" bus1="NODE#420661331.3.1" phases=1 conn=Delta model=3 kv=0.220000000 kw = 0.0 pf=0.92 status=variable vmaxpu=1.5 vminpu=0.92 daily="RES2_15_DU"
New "Load.BT_299955485_1_M1" bus1="NODE#420683284.1.2.3" phases=3 conn=Delta model=2 kv=0.220000000 kw = 0.0 pf=0.92 status=variable vmaxpu=1.5 vminpu=0.92 daily="RES1_2_DU"
New "Load.BT_299955485_1_M2" bus1="NODE#420683284.1.2.3" phases=3 conn=Delta model=3 kv=0.220000000 kw = 0.0 pf=0.92 status=variable vmaxpu=1.5 vminpu=0.92 daily="RES1_2_DU"
New "Load.BT_295142007_5_M1" bus1="NODE#420685087.2" phases=1 conn=Wye model=2 kv=0.220000000 kw = 0.034743 pf=0.92 status=variable vmaxpu=1.5 vminpu=0.92 daily="RES1_23_DU"
New "Load.BT_295142007_5_M2" bus1="NODE#420685087.2" phases=1 conn=Wye model=3 kv=0.220000000 kw = 0.034743 pf=0.92 status=variable vmaxpu=1.5 vminpu=0.92 daily="RES1_23_DU"
New "Load.BT_295431795_1_M1" bus1="NODE#420686482.1.2" phases=1 conn=Delta model=2 kv=0.220000000 kw = 0.0 pf=0.92 status=variable vmaxpu=1.5 vminpu=0.92 daily="RES1_1_DU"
New "Load.BT_295431795_1_M2" bus1="NODE#420686482.1.2" phases=1 conn=Delta model=3 kv=0.220000000 kw = 0.0 pf=0.92 status=variable vmaxpu=1.5 vminpu=0.92 daily="RES1_1_DU"
New "Load.BT_295227788_M1" bus1="NODE#420683215.3" phases=1 conn=Wye model=2 kv=0.220000000 kw = 0.0 pf=0.92 status=variable vmaxpu=1.5 vminpu=0.92 daily="COM1_21_DU"
New "Load.BT_295227788_M2" bus1="NODE#420683215.3" phases=1 conn=Wye model=3 kv=0.220000000 kw = 0.0 pf=0.92 status=variable vmaxpu=1.5 vminpu=0.92 daily="COM1_21_DU"
New "Load.BT_295227618_1_M1" bus1="NODE#420683290.1.2" phases=1 conn=Delta model=2 kv=0.240000000 kw = 0.066826 pf=0.92 status=variable vmaxpu=1.5 vminpu=0.92 daily="RES1_7_DU"
New "Load.BT_295227618_1_M2" bus1="NODE#420683290.1.2" phases=1 conn=Delta model=3 kv=0.240000000 kw = 0.066826 pf=0.92 status=variable vmaxpu=1.5 vminpu=0.92 daily="RES1_7_DU"
New "Load.BT_ _4_M1" bus1="NODE#2316029025.1.2.3" phases=3 conn=Delta model=2 kv=0.220000000 kw = 0.0 pf=0.92 status=variable vmaxpu=1.5 vminpu=0.92 daily="COM3_11_DU"
New "Load.BT_ _4_M2" bus1="NODE#2316029025.1.2.3" phases=3 conn=Delta model=3 kv=0.220000000 kw = 0.0 pf=0.92 status=variable vmaxpu=1.5 vminpu=0.92 daily="COM3_11_DU"
New "Load.BT_324074389_M1" bus1="NODE#420710652.1.2.3" phases=3 conn=Delta model=2 kv=0.220000000 kw = 0.0 pf=0.92 status=variable vmaxpu=1.5 vminpu=0.92 daily="RES5_17_DU"
New "Load.BT_324074389_M2" bus1="NODE#420710652.1.2.3" phases=3 conn=Delta model=3 kv=0.220000000 kw = 0.0 pf=0.92 status=variable vmaxpu=1.5 vminpu=0.92 daily="RES5_17_DU"
New "Load.BT_295228059_1_M1" bus1="NODE#420685123.1.2.3" phases=3 conn=Delta model=2 kv=0.220000000 kw = 0.0 pf=0.92 status=variable vmaxpu=1.5 vminpu=0.92 daily="RES2_2_DU"
New "Load.BT_295228059_1_M2" bus1="NODE#420685123.1.2.3" phases=3 conn=Delta model=3 kv=0.220000000 kw = 0.0 pf=0.92 status=variable vmaxpu=1.5 vminpu=0.92 daily="RES2_2_DU"
New "Load.BT_ _5_M1" bus1="NODE#464498517.1.2.3.4" phases=3 conn=Delta model=2 kv=0.220000000 kw = 4.3946815 pf=0.92 status=variable vmaxpu=1.5 vminpu=0.92 daily="COM1_10_DU"
New "Load.BT_ _5_M2" bus1="NODE#464498517.1.2.3.4" phases=3 conn=Delta model=3 kv=0.220000000 kw = 4.3946815 pf=0.92 status=variable vmaxpu=1.5 vminpu=0.92 daily="COM1_10_DU"
New "Load.BT_295227098_1_M1" bus1="NODE#420683269.2" phases=1 conn=Wye model=2 kv=0.220000000 kw = 0.0 pf=0.92 status=variable vmaxpu=1.5 vminpu=0.92 daily="RES2_1_DU"
New "Load.BT_295227098_1_M2" bus1="NODE#420683269.2" phases=1 conn=Wye model=3 kv=0.220000000 kw = 0.0 pf=0.92 status=variable vmaxpu=1.5 vminpu=0.92 daily="RES2_1_DU"
New "Load.BT_323836146_1_M1" bus1="NODE#420685252.1.2" phases=1 conn=Delta model=2 kv=0.220000000 kw = 0.114546 pf=0.92 status=variable vmaxpu=1.5 vminpu=0.92 daily="RES1_8_DU"
New "Load.BT_323836146_1_M2" bus1="NODE#420685252.1.2" phases=1 conn=Delta model=3 kv=0.220000000 kw = 0.114546 pf=0.92 status=variable vmaxpu=1.5 vminpu=0.92 daily="RES1_8_DU"
New "Load.BT_295228613_1_M1" bus1="NODE#420684883.2.3" phases=1 conn=Delta model=2 kv=0.220000000 kw = 0.0 pf=0.92 status=variable vmaxpu=1.5 vminpu=0.92 daily="RES3_19_DU"
New "Load.BT_295228613_1_M2" bus1="NODE#420684883.2.3" phases=1 conn=Delta model=3 kv=0.220000000 kw = 0.0 pf=0.92 status=variable vmaxpu=1.5 vminpu=0.92 daily="RES3_19_DU"
New "Load.BT_ _6_M1" bus1="NODE#420661334.1.2" phases=1 conn=Delta model=2 kv=0.240000000 kw = 0.2102965 pf=0.92 status=variable vmaxpu=1.5 vminpu=0.92 daily="RES1_24_DU"
New "Load.BT_ _6_M2" bus1="NODE#420661334.1.2" phases=1 conn=Delta model=3 kv=0.240000000 kw = 0.2102965 pf=0.92 status=variable vmaxpu=1.5 vminpu=0.92 daily="RES1_24_DU"
New "Load.BT_295227764_1_M1" bus1="NODE#420661223.1.2" phases=1 conn=Delta model=2 kv=0.240000000 kw = 0.0 pf=0.92 status=variable vmaxpu=1.5 vminpu=0.92 daily="RES1_11_DU"
New "Load.BT_295227764_1_M2" bus1="NODE#420661223.1.2" phases=1 conn=Delta model=3 kv=0.240000000 kw = 0.0 pf=0.92 status=variable vmaxpu=1.5 vminpu=0.92 daily="RES1_11_DU"
New "Load.BT_ _7_M1" bus1="NODE#420684919.2" phases=1 conn=Wye model=2 kv=0.220000000 kw = 0.0 pf=0.92 status=variable vmaxpu=1.5 vminpu=0.92 daily="RES2_14_DU"
New "Load.BT_ _7_M2" bus1="NODE#420684919.2" phases=1 conn=Wye model=3 kv=0.220000000 kw = 0.0 pf=0.92 status=variable vmaxpu=1.5 vminpu=0.92 daily="RES2_14_DU"
New "Load.BT_ _8_M1" bus1="NODE#420710496.2.3" phases=1 conn=Delta model=2 kv=0.220000000 kw = 0.5211655 pf=0.92 status=variable vmaxpu=1.5 vminpu=0.92 daily="RES2_14_DU"
New "Load.BT_ _8_M2" bus1="NODE#420710496.2.3" phases=1 conn=Delta model=3 kv=0.220000000 kw = 0.5211655 pf=0.92 status=variable vmaxpu=1.5 vminpu=0.92 daily="RES2_14_DU"
New "Load.BT_299571880_1_M1" bus1="NODE#420683290.1.2" phases=1 conn=Delta model=2 kv=0.240000000 kw = 0.0762715 pf=0.92 status=variable vmaxpu=1.5 vminpu=0.92 daily="RES1_26_DU"
New "Load.BT_299571880_1_M2" bus1="NODE#420683290.1.2" phases=1 conn=Delta model=3 kv=0.240000000 kw = 0.0762715 pf=0.92 status=variable vmaxpu=1.5 vminpu=0.92 daily="RES1_26_DU"
New "Load.BT_295227901_1_M1" bus1="NODE#420685225.1.2" phases=1 conn=Delta model=2 kv=0.240000000 kw = 0.0 pf=0.92 status=variable vmaxpu=1.5 vminpu=0.92 daily="RES1_2_DU"
New "Load.BT_295227901_1_M2" bus1="NODE#420685225.1.2" phases=1 conn=Delta model=3 kv=0.240000000 kw = 0.0 pf=0.92 status=variable vmaxpu=1.5 vminpu=0.92 daily="RES1_2_DU"
New "Load.BT_295226547_1_M1" bus1="NODE#420661331.3.1" phases=1 conn=Delta model=2 kv=0.220000000 kw = 0.0 pf=0.92 status=variable vmaxpu=1.5 vminpu=0.92 daily="RES2_1_DU"
New "Load.BT_295226547_1_M2" bus1="NODE#420661331.3.1" phases=1 conn=Delta model=3 kv=0.220000000 kw = 0.0 pf=0.92 status=variable vmaxpu=1.5 vminpu=0.92 daily="RES2_1_DU"
New "Load.BT_295227131_1_M1" bus1="NODE#420661295.1.2" phases=1 conn=Delta model=2 kv=0.220000000 kw = 0.0 pf=0.92 status=variable vmaxpu=1.5 vminpu=0.92 daily="RES1_16_DU"
New "Load.BT_295227131_1_M2" bus1="NODE#420661295.1.2" phases=1 conn=Delta model=3 kv=0.220000000 kw = 0.0 pf=0.92 status=variable vmaxpu=1.5 vminpu=0.92 daily="RES1_16_DU"
New "Load.BT_295227089_M1" bus1="NODE#420683269.2.3" phases=1 conn=Delta model=2 kv=0.220000000 kw = 0.0 pf=0.92 status=variable vmaxpu=1.5 vminpu=0.92 daily="RES2_4_DU"
New "Load.BT_295227089_M2" bus1="NODE#420683269.2.3" phases=1 conn=Delta model=3 kv=0.220000000 kw = 0.0 pf=0.92 status=variable vmaxpu=1.5 vminpu=0.92 daily="RES2_4_DU"
New "Load.BT_295228443_1_M1" bus1="NODE#420661631.1" phases=1 conn=Wye model=2 kv=0.220000000 kw = 0.084544 pf=0.92 status=variable vmaxpu=1.5 vminpu=0.92 daily="RES1_9_DU"
New "Load.BT_295228443_1_M2" bus1="NODE#420661631.1" phases=1 conn=Wye model=3 kv=0.220000000 kw = 0.084544 pf=0.92 status=variable vmaxpu=1.5 vminpu=0.92 daily="RES1_9_DU"
New "Load.BT_324075644_1_M1" bus1="NODE#420710652.1.2.3" phases=3 conn=Delta model=2 kv=0.220000000 kw = 0.1390485 pf=0.92 status=variable vmaxpu=1.5 vminpu=0.92 daily="RES1_5_DU"
New "Load.BT_324075644_1_M2" bus1="NODE#420710652.1.2.3" phases=3 conn=Delta model=3 kv=0.220000000 kw = 0.1390485 pf=0.92 status=variable vmaxpu=1.5 vminpu=0.92 daily="RES1_5_DU"
New "Load.BT_295227098_2_M1" bus1="NODE#420683269.2" phases=1 conn=Wye model=2 kv=0.220000000 kw = 0.1390485 pf=0.92 status=variable vmaxpu=1.5 vminpu=0.92 daily="RES1_5_DU"
New "Load.BT_295227098_2_M2" bus1="NODE#420683269.2" phases=1 conn=Wye model=3 kv=0.220000000 kw = 0.1390485 pf=0.92 status=variable vmaxpu=1.5 vminpu=0.92 daily="RES1_5_DU"
New "Load.BT_324074811_1_M1" bus1="NODE#420685087.1.2.3" phases=3 conn=Delta model=2 kv=0.220000000 kw = 0.0401675 pf=0.92 status=variable vmaxpu=1.5 vminpu=0.92 daily="RES1_21_DU"
New "Load.BT_324074811_1_M2" bus1="NODE#420685087.1.2.3" phases=3 conn=Delta model=3 kv=0.220000000 kw = 0.0401675 pf=0.92 status=variable vmaxpu=1.5 vminpu=0.92 daily="RES1_21_DU"
New "Load.BT_324075582_2_M1" bus1="NODE#420710262.1.2.3" phases=3 conn=Delta model=2 kv=0.220000000 kw = 0.034743 pf=0.92 status=variable vmaxpu=1.5 vminpu=0.92 daily="RES1_23_DU"
New "Load.BT_324075582_2_M2" bus1="NODE#420710262.1.2.3" phases=3 conn=Delta model=3 kv=0.220000000 kw = 0.034743 pf=0.92 status=variable vmaxpu=1.5 vminpu=0.92 daily="RES1_23_DU"
New "Load.BT_ _9_M1" bus1="NODE#420685261.1.2.3" phases=3 conn=Delta model=2 kv=0.220000000 kw = 0.0 pf=0.92 status=variable vmaxpu=1.5 vminpu=0.92 daily="RES5_5_DU"
New "Load.BT_ _9_M2" bus1="NODE#420685261.1.2.3" phases=3 conn=Delta model=3 kv=0.220000000 kw = 0.0 pf=0.92 status=variable vmaxpu=1.5 vminpu=0.92 daily="RES5_5_DU"
New "Load.BT_295227814_2_M1" bus1="NODE#420683215.1.2.3" phases=3 conn=Delta model=2 kv=0.220000000 kw = 0.1390485 pf=0.92 status=variable vmaxpu=1.5 vminpu=0.92 daily="RES1_5_DU"
New "Load.BT_295227814_2_M2" bus1="NODE#420683215.1.2.3" phases=3 conn=Delta model=3 kv=0.220000000 kw = 0.1390485 pf=0.92 status=variable vmaxpu=1.5 vminpu=0.92 daily="RES1_5_DU"
New "Load.BT_299389553_1_M1" bus1="NODE#420686482.1.2.3" phases=3 conn=Delta model=2 kv=0.220000000 kw = 0.0 pf=0.92 status=variable vmaxpu=1.5 vminpu=0.92 daily="RES2_25_DU"
New "Load.BT_299389553_1_M2" bus1="NODE#420686482.1.2.3" phases=3 conn=Delta model=3 kv=0.220000000 kw = 0.0 pf=0.92 status=variable vmaxpu=1.5 vminpu=0.92 daily="RES2_25_DU"
New "Load.BT_300507392_1_M1" bus1="NODE#420683413.1.2" phases=1 conn=Delta model=2 kv=0.240000000 kw = 0.0 pf=0.92 status=variable vmaxpu=1.5 vminpu=0.92 daily="RES2_10_DU"
New "Load.BT_300507392_1_M2" bus1="NODE#420683413.1.2" phases=1 conn=Delta model=3 kv=0.240000000 kw = 0.0 pf=0.92 status=variable vmaxpu=1.5 vminpu=0.92 daily="RES2_10_DU"
New "Load.BT_300143667_1_M1" bus1="NODE#420685021.1" phases=1 conn=Wye model=2 kv=0.220000000 kw = 0.0384775 pf=0.92 status=variable vmaxpu=1.5 vminpu=0.92 daily="RES1_19_DU"
New "Load.BT_300143667_1_M2" bus1="NODE#420685021.1" phases=1 conn=Wye model=3 kv=0.220000000 kw = 0.0384775 pf=0.92 status=variable vmaxpu=1.5 vminpu=0.92 daily="RES1_19_DU"
New "Load.BT_295140878_M1" bus1="NODE#420712971.2" phases=1 conn=Wye model=2 kv=0.220000000 kw = 0.0566285 pf=0.92 status=variable vmaxpu=1.5 vminpu=0.92 daily="COM1_11_DU"
New "Load.BT_295140878_M2" bus1="NODE#420712971.2" phases=1 conn=Wye model=3 kv=0.220000000 kw = 0.0566285 pf=0.92 status=variable vmaxpu=1.5 vminpu=0.92 daily="COM1_11_DU"
New "Load.BT_295226172_M1" bus1="NODE#420712269.1" phases=1 conn=Wye model=2 kv=0.220000000 kw = 0.0 pf=0.92 status=variable vmaxpu=1.5 vminpu=0.92 daily="RES2_10_DU"
New "Load.BT_295226172_M2" bus1="NODE#420712269.1" phases=1 conn=Wye model=3 kv=0.220000000 kw = 0.0 pf=0.92 status=variable vmaxpu=1.5 vminpu=0.92 daily="RES2_10_DU"
New "Load.BT_295228751_1_M1" bus1="NODE#420684847.3" phases=1 conn=Wye model=2 kv=0.220000000 kw = 0.0 pf=0.92 status=variable vmaxpu=1.5 vminpu=0.92 daily="RES1_11_DU"
New "Load.BT_295228751_1_M2" bus1="NODE#420684847.3" phases=1 conn=Wye model=3 kv=0.220000000 kw = 0.0 pf=0.92 status=variable vmaxpu=1.5 vminpu=0.92 daily="RES1_11_DU"
New "Load.BT_324073151_5_M1" bus1="NODE#482799214.1.2.3" phases=3 conn=Delta model=2 kv=0.220000000 kw = 0.0 pf=0.92 status=variable vmaxpu=1.5 vminpu=0.92 daily="COM1_14_DU"
New "Load.BT_324073151_5_M2" bus1="NODE#482799214.1.2.3" phases=3 conn=Delta model=3 kv=0.220000000 kw = 0.0 pf=0.92 status=variable vmaxpu=1.5 vminpu=0.92 daily="COM1_14_DU"
New "Load.BT_295226561_1_M1" bus1="NODE#420661331.1" phases=1 conn=Wye model=2 kv=0.220000000 kw = 0.0 pf=0.92 status=variable vmaxpu=1.5 vminpu=0.92 daily="RES1_2_DU"
New "Load.BT_295226561_1_M2" bus1="NODE#420661331.1" phases=1 conn=Wye model=3 kv=0.220000000 kw = 0.0 pf=0.92 status=variable vmaxpu=1.5 vminpu=0.92 daily="RES1_2_DU"
New "Load.BT_295227837_M1" bus1="NODE#420683215.3" phases=1 conn=Wye model=2 kv=0.220000000 kw = 0.0 pf=0.92 status=variable vmaxpu=1.5 vminpu=0.92 daily="RES2_28_DU"
New "Load.BT_295227837_M2" bus1="NODE#420683215.3" phases=1 conn=Wye model=3 kv=0.220000000 kw = 0.0 pf=0.92 status=variable vmaxpu=1.5 vminpu=0.92 daily="RES2_28_DU"
New "Load.BT_295227963_1_M1" bus1="NODE#420683221.1" phases=1 conn=Wye model=2 kv=0.220000000 kw = 0.083121 pf=0.92 status=variable vmaxpu=1.5 vminpu=0.92 daily="RES1_6_DU"
New "Load.BT_295227963_1_M2" bus1="NODE#420683221.1" phases=1 conn=Wye model=3 kv=0.220000000 kw = 0.083121 pf=0.92 status=variable vmaxpu=1.5 vminpu=0.92 daily="RES1_6_DU"
New "Load.BT_295228140_M1" bus1="NODE#420685129.2" phases=1 conn=Wye model=2 kv=0.120000000 kw = 0.083121 pf=0.92 status=variable vmaxpu=1.5 vminpu=0.92 daily="RES1_6_DU"
New "Load.BT_295228140_M2" bus1="NODE#420685129.2" phases=1 conn=Wye model=3 kv=0.120000000 kw = 0.083121 pf=0.92 status=variable vmaxpu=1.5 vminpu=0.92 daily="RES1_6_DU"
New "Load.BT_299955895_M1" bus1="NODE#420712971.1" phases=1 conn=Wye model=2 kv=0.220000000 kw = 0.0 pf=0.92 status=variable vmaxpu=1.5 vminpu=0.92 daily="COM1_21_DU"
New "Load.BT_299955895_M2" bus1="NODE#420712971.1" phases=1 conn=Wye model=3 kv=0.220000000 kw = 0.0 pf=0.92 status=variable vmaxpu=1.5 vminpu=0.92 daily="COM1_21_DU"
New "Load.BT_295226893_1_M1" bus1="NODE#420661187.1.2.3" phases=3 conn=Delta model=2 kv=0.220000000 kw = 0.0401675 pf=0.92 status=variable vmaxpu=1.5 vminpu=0.92 daily="RES1_21_DU"
New "Load.BT_295226893_1_M2" bus1="NODE#420661187.1.2.3" phases=3 conn=Delta model=3 kv=0.220000000 kw = 0.0401675 pf=0.92 status=variable vmaxpu=1.5 vminpu=0.92 daily="RES1_21_DU"
New "Load.BT_324073151_7_M1" bus1="NODE#482799214.1.2.3" phases=3 conn=Delta model=2 kv=0.220000000 kw = 0.0566285 pf=0.92 status=variable vmaxpu=1.5 vminpu=0.92 daily="COM1_11_DU"
New "Load.BT_324073151_7_M2" bus1="NODE#482799214.1.2.3" phases=3 conn=Delta model=3 kv=0.220000000 kw = 0.0566285 pf=0.92 status=variable vmaxpu=1.5 vminpu=0.92 daily="COM1_11_DU"
New "Load.BT_295227889_1_M1" bus1="NODE#420685225.1.2" phases=1 conn=Delta model=2 kv=0.240000000 kw = 0.0 pf=0.92 status=variable vmaxpu=1.5 vminpu=0.92 daily="RES2_15_DU"
New "Load.BT_295227889_1_M2" bus1="NODE#420685225.1.2" phases=1 conn=Delta model=3 kv=0.240000000 kw = 0.0 pf=0.92 status=variable vmaxpu=1.5 vminpu=0.92 daily="RES2_15_DU"
New "Load.BT_295226981_M1" bus1="NODE#420661235.3" phases=1 conn=Wye model=2 kv=0.220000000 kw = 0.0 pf=0.92 status=variable vmaxpu=1.5 vminpu=0.92 daily="RES1_10_DU"
New "Load.BT_295226981_M2" bus1="NODE#420661235.3" phases=1 conn=Wye model=3 kv=0.220000000 kw = 0.0 pf=0.92 status=variable vmaxpu=1.5 vminpu=0.92 daily="RES1_10_DU"
New "Load.BT_295226645_1_M1" bus1="NODE#420712233.2" phases=1 conn=Wye model=2 kv=0.220000000 kw = 0.0 pf=0.92 status=variable vmaxpu=1.5 vminpu=0.92 daily="RES3_15_DU"
New "Load.BT_295226645_1_M2" bus1="NODE#420712233.2" phases=1 conn=Wye model=3 kv=0.220000000 kw = 0.0 pf=0.92 status=variable vmaxpu=1.5 vminpu=0.92 daily="RES3_15_DU"
New "Load.BT_ _10_M1" bus1="NODE#420661634.1.2" phases=1 conn=Delta model=2 kv=0.220000000 kw = 0.0 pf=0.92 status=variable vmaxpu=1.5 vminpu=0.92 daily="RES6_7_DU"
New "Load.BT_ _10_M2" bus1="NODE#420661634.1.2" phases=1 conn=Delta model=3 kv=0.220000000 kw = 0.0 pf=0.92 status=variable vmaxpu=1.5 vminpu=0.92 daily="RES6_7_DU"
New "Load.BT_295228136_1_M1" bus1="NODE#420685129.1.2" phases=1 conn=Delta model=2 kv=0.240000000 kw = 0.0 pf=0.92 status=variable vmaxpu=1.5 vminpu=0.92 daily="RES3_8_DU"
New "Load.BT_295228136_1_M2" bus1="NODE#420685129.1.2" phases=1 conn=Delta model=3 kv=0.240000000 kw = 0.0 pf=0.92 status=variable vmaxpu=1.5 vminpu=0.92 daily="RES3_8_DU"
New "Load.BT_299764723_2_M1" bus1="NODE#420710262.1.2.3" phases=3 conn=Delta model=2 kv=0.220000000 kw = 0.114546 pf=0.92 status=variable vmaxpu=1.5 vminpu=0.92 daily="RES1_8_DU"
New "Load.BT_299764723_2_M2" bus1="NODE#420710262.1.2.3" phases=3 conn=Delta model=3 kv=0.220000000 kw = 0.114546 pf=0.92 status=variable vmaxpu=1.5 vminpu=0.92 daily="RES1_8_DU"
New "Load.BT_295227743_M1" bus1="NODE#420661223.1" phases=1 conn=Wye model=2 kv=0.120000000 kw = 0.0 pf=0.92 status=variable vmaxpu=1.5 vminpu=0.92 daily="RES2_6_DU"
New "Load.BT_295227743_M2" bus1="NODE#420661223.1" phases=1 conn=Wye model=3 kv=0.120000000 kw = 0.0 pf=0.92 status=variable vmaxpu=1.5 vminpu=0.92 daily="RES2_6_DU"
New "Load.BT_1319305920_1_M1" bus1="NODE#420661382.1.2.3" phases=3 conn=Delta model=2 kv=0.220000000 kw = 0.0401675 pf=0.92 status=variable vmaxpu=1.5 vminpu=0.92 daily="RES1_21_DU"
New "Load.BT_1319305920_1_M2" bus1="NODE#420661382.1.2.3" phases=3 conn=Delta model=3 kv=0.220000000 kw = 0.0401675 pf=0.92 status=variable vmaxpu=1.5 vminpu=0.92 daily="RES1_21_DU"
New "Load.BT_2081619806_2_M1" bus1="NODE#420261732.1.2.3.4" phases=3 conn=Delta model=2 kv=0.220000000 kw = 0.0401675 pf=0.92 status=variable vmaxpu=1.5 vminpu=0.92 daily="RES1_21_DU"
New "Load.BT_2081619806_2_M2" bus1="NODE#420261732.1.2.3.4" phases=3 conn=Delta model=3 kv=0.220000000 kw = 0.0401675 pf=0.92 status=variable vmaxpu=1.5 vminpu=0.92 daily="RES1_21_DU"
New "Load.BT_295227713_M1" bus1="NODE#420661262.2" phases=1 conn=Wye model=2 kv=0.120000000 kw = 0.0 pf=0.92 status=variable vmaxpu=1.5 vminpu=0.92 daily="RES2_4_DU"
New "Load.BT_295227713_M2" bus1="NODE#420661262.2" phases=1 conn=Wye model=3 kv=0.120000000 kw = 0.0 pf=0.92 status=variable vmaxpu=1.5 vminpu=0.92 daily="RES2_4_DU"
New "Load.BT_295226322_M1" bus1="NODE#1679757380.1" phases=1 conn=Wye model=2 kv=0.120000000 kw = 0.0 pf=0.92 status=variable vmaxpu=1.5 vminpu=0.92 daily="COM1_4_DU"
New "Load.BT_295226322_M2" bus1="NODE#1679757380.1" phases=1 conn=Wye model=3 kv=0.120000000 kw = 0.0 pf=0.92 status=variable vmaxpu=1.5 vminpu=0.92 daily="COM1_4_DU"
New "Load.BT_1352206425_M1" bus1="NODE#420685087.1.2.4" phases=1 conn=Delta model=2 kv=0.220000000 kw = 0.0 pf=0.92 status=variable vmaxpu=1.5 vminpu=0.92 daily="COM1_5_DU"
New "Load.BT_1352206425_M2" bus1="NODE#420685087.1.2.4" phases=1 conn=Delta model=3 kv=0.220000000 kw = 0.0 pf=0.92 status=variable vmaxpu=1.5 vminpu=0.92 daily="COM1_5_DU"
New "Load.BT_295142007_6_M1" bus1="NODE#420685087.2" phases=1 conn=Wye model=2 kv=0.220000000 kw = 0.0407325 pf=0.92 status=variable vmaxpu=1.5 vminpu=0.92 daily="RES1_18_DU"
New "Load.BT_295142007_6_M2" bus1="NODE#420685087.2" phases=1 conn=Wye model=3 kv=0.220000000 kw = 0.0407325 pf=0.92 status=variable vmaxpu=1.5 vminpu=0.92 daily="RES1_18_DU"
New "Load.BT_300143123_1_M1" bus1="NODE#420661670.1" phases=1 conn=Wye model=2 kv=0.220000000 kw = 0.114546 pf=0.92 status=variable vmaxpu=1.5 vminpu=0.92 daily="RES1_8_DU"
New "Load.BT_300143123_1_M2" bus1="NODE#420661670.1" phases=1 conn=Wye model=3 kv=0.220000000 kw = 0.114546 pf=0.92 status=variable vmaxpu=1.5 vminpu=0.92 daily="RES1_8_DU"
New "Load.BT_ _11_M1" bus1="NODE#420712884.1.2" phases=1 conn=Delta model=2 kv=0.220000000 kw = 0.0 pf=0.92 status=variable vmaxpu=1.5 vminpu=0.92 daily="RES2_19_DU"
New "Load.BT_ _11_M2" bus1="NODE#420712884.1.2" phases=1 conn=Delta model=3 kv=0.220000000 kw = 0.0 pf=0.92 status=variable vmaxpu=1.5 vminpu=0.92 daily="RES2_19_DU"
New "Load.BT_295143226_M1" bus1="NODE#420711276.2.3" phases=1 conn=Delta model=2 kv=0.220000000 kw = 0.0 pf=0.92 status=variable vmaxpu=1.5 vminpu=0.92 daily="RES2_16_DU"
New "Load.BT_295143226_M2" bus1="NODE#420711276.2.3" phases=1 conn=Delta model=3 kv=0.220000000 kw = 0.0 pf=0.92 status=variable vmaxpu=1.5 vminpu=0.92 daily="RES2_16_DU"
New "Load.BT_295228403_M1" bus1="NODE#420685051.1" phases=1 conn=Wye model=2 kv=0.220000000 kw = 0.0384775 pf=0.92 status=variable vmaxpu=1.5 vminpu=0.92 daily="RES1_19_DU"
New "Load.BT_295228403_M2" bus1="NODE#420685051.1" phases=1 conn=Wye model=3 kv=0.220000000 kw = 0.0384775 pf=0.92 status=variable vmaxpu=1.5 vminpu=0.92 daily="RES1_19_DU"
New "Load.BT_295227700_1_M1" bus1="NODE#420661262.1.2" phases=1 conn=Delta model=2 kv=0.240000000 kw = 0.0 pf=0.92 status=variable vmaxpu=1.5 vminpu=0.92 daily="RES1_2_DU"
New "Load.BT_295227700_1_M2" bus1="NODE#420661262.1.2" phases=1 conn=Delta model=3 kv=0.240000000 kw = 0.0 pf=0.92 status=variable vmaxpu=1.5 vminpu=0.92 daily="RES1_2_DU"
New "Load.BT_295228039_1_M1" bus1="NODE#420685123.1.2.3" phases=3 conn=Delta model=2 kv=0.220000000 kw = 0.0869585 pf=0.92 status=variable vmaxpu=1.5 vminpu=0.92 daily="RES1_3_DU"
New "Load.BT_295228039_1_M2" bus1="NODE#420685123.1.2.3" phases=3 conn=Delta model=3 kv=0.220000000 kw = 0.0869585 pf=0.92 status=variable vmaxpu=1.5 vminpu=0.92 daily="RES1_3_DU"
New "Load.BT_299955722_1_M1" bus1="NODE#1679757380.1.2" phases=1 conn=Delta model=2 kv=0.240000000 kw = 0.0 pf=0.92 status=variable vmaxpu=1.5 vminpu=0.92 daily="RES1_14_DU"
New "Load.BT_299955722_1_M2" bus1="NODE#1679757380.1.2" phases=1 conn=Delta model=3 kv=0.240000000 kw = 0.0 pf=0.92 status=variable vmaxpu=1.5 vminpu=0.92 daily="RES1_14_DU"
New "Load.BT_324073664_M1" bus1="NODE#420661187.2.3" phases=1 conn=Delta model=2 kv=0.220000000 kw = 0.0 pf=0.92 status=variable vmaxpu=1.5 vminpu=0.92 daily="RES3_2_DU"
New "Load.BT_324073664_M2" bus1="NODE#420661187.2.3" phases=1 conn=Delta model=3 kv=0.220000000 kw = 0.0 pf=0.92 status=variable vmaxpu=1.5 vminpu=0.92 daily="RES3_2_DU"
New "Load.BT_295142382_M1" bus1="NODE#420685513.3" phases=1 conn=Wye model=2 kv=0.220000000 kw = 0.0 pf=0.92 status=variable vmaxpu=1.5 vminpu=0.92 daily="RES2_6_DU"
New "Load.BT_295142382_M2" bus1="NODE#420685513.3" phases=1 conn=Wye model=3 kv=0.220000000 kw = 0.0 pf=0.92 status=variable vmaxpu=1.5 vminpu=0.92 daily="RES2_6_DU"
New "Load.BT_299956322_1_M1" bus1="NODE#420683269.1" phases=1 conn=Wye model=2 kv=0.220000000 kw = 0.1390485 pf=0.92 status=variable vmaxpu=1.5 vminpu=0.92 daily="RES1_5_DU"
New "Load.BT_299956322_1_M2" bus1="NODE#420683269.1" phases=1 conn=Wye model=3 kv=0.220000000 kw = 0.1390485 pf=0.92 status=variable vmaxpu=1.5 vminpu=0.92 daily="RES1_5_DU"
New "Load.BT_324074412_M1" bus1="NODE#420686473.1.2.3" phases=3 conn=Delta model=2 kv=0.220000000 kw = 0.0 pf=0.92 status=variable vmaxpu=1.5 vminpu=0.92 daily="RES2_28_DU"
New "Load.BT_324074412_M2" bus1="NODE#420686473.1.2.3" phases=3 conn=Delta model=3 kv=0.220000000 kw = 0.0 pf=0.92 status=variable vmaxpu=1.5 vminpu=0.92 daily="RES2_28_DU"
New "Load.BT_299766012_1_M1" bus1="NODE#1946105962.1.2.3" phases=3 conn=Delta model=2 kv=0.220000000 kw = 0.1390485 pf=0.92 status=variable vmaxpu=1.5 vminpu=0.92 daily="RES1_5_DU"
New "Load.BT_299766012_1_M2" bus1="NODE#1946105962.1.2.3" phases=3 conn=Delta model=3 kv=0.220000000 kw = 0.1390485 pf=0.92 status=variable vmaxpu=1.5 vminpu=0.92 daily="RES1_5_DU"
New "Load.BT_299956343_1_M1" bus1="NODE#420685123.1.2" phases=1 conn=Delta model=2 kv=0.220000000 kw = 0.114546 pf=0.92 status=variable vmaxpu=1.5 vminpu=0.92 daily="RES1_8_DU"
New "Load.BT_299956343_1_M2" bus1="NODE#420685123.1.2" phases=1 conn=Delta model=3 kv=0.220000000 kw = 0.114546 pf=0.92 status=variable vmaxpu=1.5 vminpu=0.92 daily="RES1_8_DU"
New "Load.BT_295228131_M1" bus1="NODE#420685129.2" phases=1 conn=Wye model=2 kv=0.120000000 kw = 0.0 pf=0.92 status=variable vmaxpu=1.5 vminpu=0.92 daily="RES2_19_DU"
New "Load.BT_295228131_M2" bus1="NODE#420685129.2" phases=1 conn=Wye model=3 kv=0.120000000 kw = 0.0 pf=0.92 status=variable vmaxpu=1.5 vminpu=0.92 daily="RES2_19_DU"
New "Load.BT_300144496_M1" bus1="NODE#420710784.1.2" phases=1 conn=Delta model=2 kv=0.220000000 kw = 0.0 pf=0.92 status=variable vmaxpu=1.5 vminpu=0.92 daily="COM2_1_DU"
New "Load.BT_300144496_M2" bus1="NODE#420710784.1.2" phases=1 conn=Delta model=3 kv=0.220000000 kw = 0.0 pf=0.92 status=variable vmaxpu=1.5 vminpu=0.92 daily="COM2_1_DU"
...
